@<TRIPOS>MOLECULE
LIG
   22    22     1     0     0
SMALL
resp


@<TRIPOS>ATOM
      1 C1         24.2940  -24.1240   -0.0710 c3        1 LIG     -0.101652
      2 C2         21.5530  -27.2140   -4.1120 ca        1 LIG     -0.117470
      3 C3         22.0680  -26.7470   -5.3310 ca        1 LIG     -0.169389
      4 C4         22.6710  -25.5120   -5.4480 ca        1 LIG     -0.137368
      5 C5         22.7690  -24.7300   -4.2950 ca        1 LIG      0.199621
      6 C6         21.6930  -26.4590   -2.9540 ca        1 LIG     -0.198795
      7 C7         22.2940  -25.1870   -3.0750 ca        1 LIG     -0.044597
      8 C8         22.4630  -24.4140   -1.8080 c3        1 LIG     -0.018865
      9 C9         23.9250  -24.7040   -1.3940 c3        1 LIG      0.020425
     10 O1         23.4120  -23.5360   -4.3420 oh        1 LIG     -0.531476
     11 H1         25.3320  -24.3660    0.1560 hc        1 LIG      0.024848
     12 H2         24.1720  -23.0410   -0.1020 hc        1 LIG      0.024848
     13 H3         23.6480  -24.5400    0.7020 hc        1 LIG      0.024848
     14 H4         21.0440  -28.1660   -4.0700 ha        1 LIG      0.117836
     15 H5         21.9990  -27.3610   -6.2170 ha        1 LIG      0.131057
     16 H6         23.0460  -25.1830   -6.4060 ha        1 LIG      0.139287
     17 H7         21.3480  -26.8510   -2.0090 ha        1 LIG      0.135306
     18 H8         21.7880  -24.8120   -1.0500 hc        1 LIG      0.024495
     19 H9         22.3520  -23.3500   -2.0180 hc        1 LIG      0.024495
     20 H10        24.0890  -25.7810   -1.3750 hc        1 LIG      0.016491
     21 H11        24.6000  -24.3200   -2.1580 hc        1 LIG      0.016491
     22 H12        23.3910  -23.1260   -3.4740 ho        1 LIG      0.419566
@<TRIPOS>BOND
     1    1    9 1   
     2    1   11 1   
     3    1   12 1   
     4    1   13 1   
     5    2    3 ar  
     6    2    6 ar  
     7    2   14 1   
     8    3    4 ar  
     9    3   15 1   
    10    4    5 ar  
    11    4   16 1   
    12    5    7 ar  
    13    5   10 1   
    14    6    7 ar  
    15    6   17 1   
    16    7    8 1   
    17    8    9 1   
    18    8   18 1   
    19    8   19 1   
    20    9   20 1   
    21    9   21 1   
    22   10   22 1   
@<TRIPOS>SUBSTRUCTURE
     1 LIG         1 TEMP              0 ****  ****    0 ROOT
